*MODEL INPUT FILE            B     4     1    39   999     0
*FILES              
MODEL          PTSUB048
FILEX          GUDK1702.PTX C:\DSSAT48\POTATO\                                                              
FILEA          GUDK1702.PTA C:\DSSAT48\POTATO\                                                              
FILET          GUDK1702.PTT C:\DSSAT48\POTATO\                                                              
SPECIES        PTSUB048.SPE C:\DSSAT48\GENOTYPE\                                                            
ECOTYPE        PTSUB048.ECO C:\DSSAT48\GENOTYPE\                                                            
CULTIVAR       PTSUB048.CUL C:\DSSAT48\GENOTYPE\                                                            
PESTS          PTSUB048.PST C:\DSSAT48\PEST\                                                                
SOILS          SOIL.SOL     C:\DSSAT48\SOIL\                                                                
WEATHERW       DKPK1701.WTH C:\DSSAT48\Weather\                                                             
OUTPUT         OVERVIEW
*SIMULATION CONTROL 
                   1     1     S 2017261  2150 14 days before planting  
                   Y     Y     N     N     N     N     N     N     M
                   M     M     E     R     S     C     R     1     G     R     2     D     0
                   R     R     R     N     D
                   N     Y     Y     1     Y     Y     Y     Y     N     N     Y     N     N
!AUTOMATIC MANAGEM  
                   -99     -99   40.  100.   30.   40.   10.
                 30.   50.  100. GS000 IR001  10.0 1.000
                 30.   50.   25. FE001 GS000
                100.     1   20.
                     0     -99  100.    0.
*EXP.DETAILS        
  1GUDK1702 PT GENO AND PLANTING TIME (MEHWISH CALIBRATION, 2017-18)FINAL  
*TREATMENTS         
 39 1 1 0 Arizona-P4               
*CULTIVARS          
   PT GU0006 Arizona         
*FIELDS             
   GUDK1702 DKPK1701   0.0  -99. DR003  -99. 100.0   -99 L      -99. GUPK160001-99.00 -99.0
    -99.0000000000  -99.0000000000   -99.000               1.0  100.   1.0 -99.0 FH201     1
*INITIAL CONDITIONS 
   FA    2017261     0     0  1.00  1.00 -99.0     0  0.00  0.00  100.    0.
      5. 0.174 0.100 0.800
     15. 0.184 0.100 0.800
     30. 0.199 0.100 0.800
     45. 0.214 0.100 0.800
     60. 0.214 0.100 0.800
     80. 0.213 0.100 0.800
    100. 0.213 0.100 0.800
    150. 0.202 0.100 0.800
    200. 0.202 0.100 0.800
*PLANTING DETAILS   
   2017311 2017323   4.4   4.4     S     R   75.    0.  12.0  444.  -99. -99.0 -99.0   1.0
*IRRIGATION         
   1.000   30.   50.  100. GS000 IR001  10.0
   2017275 IR001  40.0
   2017283 IR001 100.0
   2017287 IR001  40.0
   2017299 IR001  40.0
   2017311 IR001 150.0
   2017326 IR001  40.0
   2017334 IR001 150.0
   2017346 IR001  18.0
   2017353 IR001  40.0
*FERTILIZERS        
   2017311 FE018 AP004   15.    0.    0.  100.  -99.  -99.   -99
   2017311 FE013 AP004   15.    0.  100.    0.  -99.  -99.   -99
   2017311 FE005 AP004   15.   50.    0.    0.  -99.  -99.   -99
   2017341 FE005 AP004   15.   50.    0.    0.  -99.  -99.   -99
   2017361 FE005 AP004   15.   50.    0.    0.  -99.  -99.   -99
*RESIDUES           
*CHEMICALS          
*TILLAGE            
   2017261 TI007  15.0
   2017264 TI011  15.0
   2017267 TI038  12.0
*ENVIRONMENT        
*HARVEST            
       127 GS020     H     A  100.    0.
*SOIL               
 GUPK160001  PAK         L      -99.   Bhutesar                                        
 DIKhan      PK           31.450  70.708 HC_GEN0014                                        
 BK     0.10   6.0  0.50   75.  1.00  1.00 SA001 SA001 SA001 -99  
    5.       0.119 0.228 0.390 1.000  1.13  1.47 0.780  19.8  29.2 -99.0 0.080  7.70-99.00 16.40-99.00
   15.       0.129 0.240 0.392 0.850 0.950  1.48 0.660  21.5  28.4 -99.0 0.060  7.70-99.00 14.30-99.00
   30.       0.143 0.255 0.396 0.700 0.750  1.51 0.500  23.8  27.3 -99.0 0.050  7.80-99.00 13.90-99.00
   45.       0.158 0.270 0.400 0.500 0.580  1.57 0.320  26.2  26.0 -99.0 0.040  8.00-99.00 14.50-99.00
   60.       0.158 0.270 0.400 0.500 0.580  1.57 0.320  26.2  26.0 -99.0 0.040  8.00-99.00 14.50-99.00
   80.       0.157 0.269 0.400 0.380 0.590  1.63 0.200  26.2  25.4 -99.0 0.040  8.10-99.00 14.60-99.00
  100.       0.157 0.269 0.400 0.380 0.590  1.63 0.200  26.2  25.4 -99.0 0.040  8.10-99.00 14.60-99.00
  150.       0.147 0.256 0.396 0.050 0.720  1.68 0.100  24.5  25.2 -99.0 0.050  8.30-99.00 14.50-99.00
  200.       0.147 0.256 0.396 0.050 0.720  1.68 0.100  24.5  25.2 -99.0 0.050  8.30-99.00 14.50-99.00
                    
    5.-99.00 -99.0 -99.0 -99.0 -99.0 -99.0 -99.0 -99.0 -99.0 -99.0-99.00 -99.0 -99.0 -99.0 -99.0 -99.0  -99.  -99.
   15.-99.00 -99.0 -99.0 -99.0 -99.0 -99.0 -99.0 -99.0 -99.0 -99.0-99.00 -99.0 -99.0 -99.0 -99.0 -99.0  -99.  -99.
   30.-99.00 -99.0 -99.0 -99.0 -99.0 -99.0 -99.0 -99.0 -99.0 -99.0-99.00 -99.0 -99.0 -99.0 -99.0 -99.0  -99.  -99.
   45.-99.00 -99.0 -99.0 -99.0 -99.0 -99.0 -99.0 -99.0 -99.0 -99.0-99.00 -99.0 -99.0 -99.0 -99.0 -99.0  -99.  -99.
   60.-99.00 -99.0 -99.0 -99.0 -99.0 -99.0 -99.0 -99.0 -99.0 -99.0-99.00 -99.0 -99.0 -99.0 -99.0 -99.0  -99.  -99.
   80.-99.00 -99.0 -99.0 -99.0 -99.0 -99.0 -99.0 -99.0 -99.0 -99.0-99.00 -99.0 -99.0 -99.0 -99.0 -99.0  -99.  -99.
  100.-99.00 -99.0 -99.0 -99.0 -99.0 -99.0 -99.0 -99.0 -99.0 -99.0-99.00 -99.0 -99.0 -99.0 -99.0 -99.0  -99.  -99.
  150.-99.00 -99.0 -99.0 -99.0 -99.0 -99.0 -99.0 -99.0 -99.0 -99.0-99.00 -99.0 -99.0 -99.0 -99.0 -99.0  -99.  -99.
  200.-99.00 -99.0 -99.0 -99.0 -99.0 -99.0 -99.0 -99.0 -99.0 -99.0-99.00 -99.0 -99.0 -99.0 -99.0 -99.0  -99.  -99.
                    
    5.-99.00-99.00-99.00-99.00
   15.-99.00-99.00-99.00-99.00
   30.-99.00-99.00-99.00-99.00
   45.-99.00-99.00-99.00-99.00
   60.-99.00-99.00-99.00-99.00
   80.-99.00-99.00-99.00-99.00
  100.-99.00-99.00-99.00-99.00
  150.-99.00-99.00-99.00-99.00
  200.-99.00-99.00-99.00-99.00
*CULTIVAR           
GU0006 Arizona          IB0001   917.  21.6   0.5   0.2  15.5 270.0
