*EXP.DETAILS: GUDK1603PT GENO AND N (ALAM EVALUATION, 2016-17)FINAL

*GENERAL
@PEOPLE
Muhammad Sohail Khan
@ADDRESS
Department of Horticulture, Gomal University, D.I.Khan
@SITE
D.I.Khan, Pakistan
@ PAREA  PRNO  PLEN  PLDR  PLSP  PLAY HAREA  HRNO  HLEN  HARM.........
    -99   -99   -99   -99   -99   -99   -99   -99   -99   -99
@NOTES
Maturity date is taken from the actual date of harvest
T2 = 150 DAP
soil profile data Bhutesar
Finalized!!
Using genotype parameter values from mehwish 2017-18
Emergence date are revsied
Harvest date revised for each genotype in line with zero simulated canopy cover using Yin SAS method


*TREATMENTS                        -------------FACTOR LEVELS------------
@N R O C TNAME.................... CU FL SA IC MP MI MF MR MC MT ME MH SM
 1 1 1 0 Elodie-0N                  1  1  0  2  1  2  2  0  0  2  0  0  2
 2 1 1 0 Elodie-75N                 1  2  0  2  2  2  3  0  0  2  0  1  2
 3 1 1 0 Elodie-150N                1  1  0  2  3  2  4  0  0  2  0  2  2
 4 1 1 0 Elodie-225N                1  1  0  2  4  2  5  0  0  2  0  3  2
 5 1 1 0 El Beida-0N                2  1  0  2  5  2  2  0  0  2  0  0  2
 6 1 1 0 El Beida-75N               2  2  0  2  6  2  3  0  0  2  0  4  2
 7 1 1 0 El Beida-150N              2  1  0  2  7  2  4  0  0  2  0  5  2
 8 1 1 0 El Beida-225N              2  1  0  2  8  2  5  0  0  2  0  6  2
 9 1 1 0 Constance-0N               3  1  0  2  9  2  2  0  0  2  0  0  2
10 1 1 0 Constance-75N              3  2  0  2 10  2  3  0  0  2  0  7  2
11 1 1 0 Constance-150N             3  1  0  2 11  2  4  0  0  2  0  8  2
12 1 1 0 Constance-225N             3  1  0  2 12  2  5  0  0  2  0  9  2
13 1 1 0 Red Sun-0N                 4  1  0  2 13  2  2  0  0  2  0  0  2
14 1 1 0 Red Sun-75N                4  2  0  2 14  2  3  0  0  2  0 10  2
15 1 1 0 Red Sun-150N               4  1  0  2 15  2  4  0  0  2  0 11  2
16 1 1 0 Red Sun-225N               4  1  0  2 16  2  5  0  0  2  0 12  2
17 1 1 0 Red Valentine-0N           5  1  0  2 17  2  2  0  0  2  0  0  2
18 1 1 0 Red Valentine-75N          5  2  0  2 18  2  3  0  0  2  0 13  2
19 1 1 0 Red Valentine-150N         5  1  0  2 19  2  4  0  0  2  0 14  2
20 1 1 0 Red Valentine-225N         5  1  0  2 20  2  5  0  0  2  0 15  2
21 1 1 0 Arizona-0N                 6  1  0  2 21  2  2  0  0  2  0  0  2
22 1 1 0 Arizona-75N                6  2  0  2 22  2  3  0  0  2  0 16  2
23 1 1 0 Arizona-150N               6  1  0  2 23  2  4  0  0  2  0 17  2
24 1 1 0 Arizona-225N               6  1  0  2 24  2  5  0  0  2  0 18  2
25 1 1 0 Arsenal-0N                 7  1  0  2 25  2  2  0  0  2  0  0  2
26 1 1 0 Arsenal-75N                7  2  0  2 26  2  3  0  0  2  0 19  2
27 1 1 0 Arsenal-150N               7  1  0  2 27  2  4  0  0  2  0 20  2
28 1 1 0 Arsenal-225N               7  1  0  2 28  2  5  0  0  2  0 21  2
29 1 1 0 Rock-0N                    8  1  0  2 29  2  2  0  0  2  0  0  2
30 1 1 0 Rock-75N                   8  2  0  2 30  2  3  0  0  2  0 22  2
31 1 1 0 Rock-150N                  8  1  0  2 31  2  4  0  0  2  0 23  2
32 1 1 0 Rock-225N                  8  1  0  2 32  2  5  0  0  2  0 24  2
33 1 1 0 Fado-0N                    9  1  0  2 33  2  2  0  0  2  0  0  2
34 1 1 0 Fado-75N                   9  2  0  2 34  2  3  0  0  2  0 25  2
35 1 1 0 Fado-150N                  9  1  0  2 35  2  4  0  0  2  0 26  2
36 1 1 0 Fado-225N                  9  1  0  2 36  2  5  0  0  2  0 27  2
37 1 1 0 Sarpo Mira-0N             10  1  0  2 37  2  2  0  0  2  0  0  2
38 1 1 0 Sarpo Mira-75N            10  2  0  2 38  2  3  0  0  2  0 28  2
39 1 1 0 Sarpo Mira-150N           10  1  0  2 39  2  4  0  0  2  0 29  2
40 1 1 0 Sarpo Mira-225N           10  1  0  2 40  2  5  0  0  2  0 30  2
41 1 1 0 Check-0N                  11  1  0  2 41  2  2  0  0  2  0  0  2
42 1 1 0 Check-75N                 11  2  0  2 42  2  3  0  0  2  0 31  2
43 1 1 0 Check-150N                11  1  0  2 43  2  4  0  0  2  0 32  2
44 1 1 0 Check-225N                11  1  0  2 44  2  5  0  0  2  0 33  2

*CULTIVARS
@C CR INGENO CNAME
 1 PT GU0001 ELodie
 2 PT GU0002 El Beida
 3 PT GU0003 Constance
 4 PT GU0004 Red Sun
 5 PT GU0005 Red Valentine
 6 PT GU0006 Arizona
 7 PT GU0007 Arsenal
 8 PT GU0008 Rock
 9 PT GU0009 Fado
10 PT GU0010 Sarpo Mira
11 PT GU0011 Check

*FIELDS
@L ID_FIELD WSTA....  FLSA  FLOB  FLDT  FLDD  FLDS  FLST SLTX  SLDP  ID_SOIL    FLNAME
 1 GUDK1602 PKPK       -99   -99 DR003   -99   -99   -99 L      -99  GUPK160001 D.I.Khan
 2 XXXXXXX2 PKPK       -99   -99 DR003   -99   -99   -99 L      -99  GUFA160001 Zindani
@L ...........XCRD ...........YCRD .....ELEV .............AREA .SLEN .FLWR .SLAS FLHST FHDUR
 1             -99             -99       -99               -99   -99   -99   -99 FH201     1
 2             -99             -99       -99               -99   -99   -99   -99 FH201     1

*SOIL ANALYSIS
@A SADAT  SMHB  SMPX  SMKE  SANAME
 1 16252 SA011   -99   -99  -99
@A  SABL  SADM  SAOC  SANI SAPHW SAPHB  SAPX  SAKE  SASC
 1    15    .9    .8   .07     8   -99   1.9    .4   .74
 1    30     1    .7   .05   8.3   -99   1.4    .4   .71
 1    45    .9   .71   .04   8.2   -99     1    .3   .86
 1    60     1    .6   .05   8.1   -99   5.6    .3   .94
 1    75    .9   .71   .04   8.2   -99   3.1    .4   .98
 1    90    .7    .4   .05     8   -99   3.3    .2   .98
 1   105    .8   .74   .04   7.9   -99   3.4    .2   .99
@A SADAT  SMHB  SMPX  SMKE  SANAME
 2 16252 SA011   -99   -99  -99
@A  SABL  SADM  SAOC  SANI SAPHW SAPHB  SAPX  SAKE  SASC
 2    15    .9    .2   .01     8   -99   -99   -99    .3
 2    30     1    .2   .01   8.3   -99   -99   -99    .3
 2    45    .9    .2   .01   8.2   -99   -99   -99    .3
 2    60     1    .2   .01   8.1   -99   -99   -99    .3
 2    75    .9    .2   .01   8.2   -99   -99   -99    .3
 2    90    .7    .2   .01     8   -99   -99   -99    .3
 2   105    .8    .2   .01   7.9   -99   -99   -99    .3

*INITIAL CONDITIONS
@C   PCR ICDAT  ICRT  ICND  ICRN  ICRE  ICWD ICRES ICREN ICREP ICRIP ICRID ICNAME
 1    FA 16252   -99   -99     1     1   -99   -99   -99   -99   -99   -99 24 days before experiment start
@C  ICBL  SH2O  SNH4  SNO3
 1     5  .174    .1    .8
 1    15  .184    .1    .8
 1    30  .199    .1    .8
 1    60  .214    .1    .8
 1   100  .213    .1    .8
 1   200  .202    .1    .8
@C   PCR ICDAT  ICRT  ICND  ICRN  ICRE  ICWD ICRES ICREN ICREP ICRIP ICRID ICNAME
 2    FA 16262   -99   -99     1     1   -99   -99   -99   -99   -99   -99 14 days before experiment start
@C  ICBL  SH2O  SNH4  SNO3
 2     5  .174    .1    .8
 2    15  .184    .1    .8
 2    30  .199    .1    .8
 2    60  .214    .1    .8
 2   100  .213    .1    .8
 2   200  .202    .1    .8
@C   PCR ICDAT  ICRT  ICND  ICRN  ICRE  ICWD ICRES ICREN ICREP ICRIP ICRID ICNAME
 3    FA 16262    30    10     1     1   -99  1000   -99   -99   -99   -99 14 days before experiment start
@C  ICBL  SH2O  SNH4  SNO3
 3     5  .174    .1    .8
 3    15  .184    .1    .8
 3    30  .199    .1    .8
 3    60  .214    .1    .8
 3   100  .213    .1    .8
 3   200  .202    .1    .8
@C   PCR ICDAT  ICRT  ICND  ICRN  ICRE  ICWD ICRES ICREN ICREP ICRIP ICRID ICNAME
 4    FA 16262   -99   -99     1     1   -99   -99   -99   -99   -99   -99 14 days before experiment start
@C  ICBL  SH2O  SNH4  SNO3
 4     5  .174    .1    .8
 4    15  .184    .1    .8
 4    30  .199    .1    .8
 4    60  .214    .1    .8
 4   100  .213    .1    .8
 4   200  .202    .1    .8

*PLANTING DETAILS
@P PDATE EDATE  PPOP  PPOE  PLME  PLDS  PLRS  PLRD  PLDP  PLWT  PAGE  PENV  PLPH  SPRL                        PLNAME
 1 16288 16298  4.44  4.44     S     R    75     0    12   444   -99   -99   -99    .5                        Elodie-P2-0N
 2 16288 16299  4.44  4.44     S     R    75     0    12   444   -99   -99   -99     1                        Elodie-P2-75N
 3 16288 16299  4.44  4.44     S     R    75     0    12   444   -99   -99   -99     1                        Elodie-P2-150N
 4 16288 16301  4.44  4.44     S     R    75     0    12   444   -99   -99   -99    .5                        Elodie-P2-225N
 5 16288 16297  4.44  4.44     S     R    75     0    12   444   -99   -99   -99    .5                        Elbeida-P2-0N
 6 16288 16298  4.44  4.44     S     R    75     0    12   444   -99   -99   -99     1                        Elbeida-P2-75N
 7 16288 16299  4.44  4.44     S     R    75     0    12   444   -99   -99   -99     1                        Elbeida-P2-150N
 8 16288 16301  4.44  4.44     S     R    75     0    12   444   -99   -99   -99    .5                        Elbeida-P2-225N
 9 16288 16302  4.44  4.44     S     R    75     0    12   444   -99   -99   -99    .5                        Constance-P2-0N
10 16288 16303  4.44  4.44     S     R    75     0    12   444   -99   -99   -99     1                        Constance-P2-75N
11 16288 16304  4.44  4.44     S     R    75     0    12   444   -99   -99   -99     1                        Constance-P2-150N
12 16288 16305  4.44  4.44     S     R    75     0    12   444   -99   -99   -99    .5                        Constance-P2-225N
13 16288 16300  4.44  4.44     S     R    75     0    12   444   -99   -99   -99    .5                        Red Sun-P2-0N
14 16288 16301  4.44  4.44     S     R    75     0    12   444   -99   -99   -99     1                        Red Sun-P2-75N
15 16288 16302  4.44  4.44     S     R    75     0    12   444   -99   -99   -99     1                        Red Sun-P2-150N
16 16288 16305  4.44  4.44     S     R    75     0    12   444   -99   -99   -99    .5                        Red Sun-P2-225N
17 16288 16299  4.44  4.44     S     R    75     0    12   444   -99   -99   -99    .5                        Red Valentine-P2-0N
18 16288 16301  4.44  4.44     S     R    75     0    12   444   -99   -99   -99     1                        Red Valentine-P2-75N
19 16288 16301  4.44  4.44     S     R    75     0    12   444   -99   -99   -99     1                        Red Valentine-P2-150N
20 16288 16303  4.44  4.44     S     R    75     0    12   444   -99   -99   -99    .5                        Red Valentine-P2-225N
21 16288 16300  4.44  4.44     S     R    75     0    12   444   -99   -99   -99    .5                        Arizona-P2-0N
22 16288 16301  4.44  4.44     S     R    75     0    12   444   -99   -99   -99     1                        Arizona-P2-75N
23 16288 16301  4.44  4.44     S     R    75     0    12   444   -99   -99   -99     1                        Arizona-P2-150N
24 16288 16303  4.44  4.44     S     R    75     0    12   444   -99   -99   -99    .5                        Arizona-P2-225N
25 16288 16301  4.44  4.44     S     R    75     0    12   444   -99   -99   -99    .5                        Arsenal-P2-0N
26 16288 16301  4.44  4.44     S     R    75     0    12   444   -99   -99   -99     1                        Arsenal-P2-75N
27 16288 16302  4.44  4.44     S     R    75     0    12   444   -99   -99   -99     1                        Arsenal-P2-150N
28 16288 16303  4.44  4.44     S     R    75     0    12   444   -99   -99   -99    .5                        Arsenal-P2-225N
29 16288 16302  4.44  4.44     S     R    75     0    12   444   -99   -99   -99    .5                        Rock-P2-0N
30 16288 16303  4.44  4.44     S     R    75     0    12   444   -99   -99   -99     1                        Rock-P2-75N
31 16288 16303  4.44  4.44     S     R    75     0    12   444   -99   -99   -99     1                        Rock-P2-150N
32 16288 16304  4.44  4.44     S     R    75     0    12   444   -99   -99   -99    .5                        Rock-P2-225N
33 16288 16304  4.44  4.44     S     R    75     0    12   444   -99   -99   -99    .5                        Fado-P2-0N
34 16288 16305  4.44  4.44     S     R    75     0    12   444   -99   -99   -99     1                        Fado-P2-75N
35 16288 16307  4.44  4.44     S     R    75     0    12   444   -99   -99   -99     1                        Fado-P2-150N
36 16288 16308  4.44  4.44     S     R    75     0    12   444   -99   -99   -99    .5                        Fado-P2-225N
37 16288 16304  4.44  4.44     S     R    75     0    12   444   -99   -99   -99    .5                        Sarpo Mira-P2-0N
38 16288 16305  4.44  4.44     S     R    75     0    12   444   -99   -99   -99     1                        Sarpo Mira-P2-75N
39 16288 16307  4.44  4.44     S     R    75     0    12   444   -99   -99   -99     1                        Sarpo Mira-P2-150N
40 16288 16307  4.44  4.44     S     R    75     0    12   444   -99   -99   -99    .5                        Sarpo Mira-P2-225N
41 16288 16309  4.44  4.44     S     R    75     0    12   444   -99   -99   -99    .5                        Check-P2-0N
42 16288 16310  4.44  4.44     S     R    75     0    12   444   -99   -99   -99     1                        Check-P2-75N
43 16288 16310  4.44  4.44     S     R    75     0    12   444   -99   -99   -99     1                        Check-P2-150N
44 16288 16311  4.44  4.44     S     R    75     0    12   444   -99   -99   -99    .5                        Check-P2-225N

*IRRIGATION AND WATER MANAGEMENT
@I  EFIR  IDEP  ITHR  IEPT  IOFF  IAME  IAMT IRNAME
 1     1    30    50   100 GS000 IR001    10 P1
@I IDATE  IROP IRVAL
 1 16276 IR001   150
 1 16284 IR001   100
 1 16288 IR001    40
 1 16300 IR001    40
 1 16312 IR001    40
 1 16327 IR001    40
 1 16335 IR001   150
 1 16347 IR001    18
 1 16354 IR001    40
@I  EFIR  IDEP  ITHR  IEPT  IOFF  IAME  IAMT IRNAME
 2     1    30    50   100 GS000 IR001    10 P2
@I IDATE  IROP IRVAL
 2 16276 IR001    40
 2 16284 IR001   100
 2 16288 IR001   150
 2 16300 IR001    40
 2 16312 IR001    40
 2 16327 IR001    40
 2 16335 IR001   150
 2 16347 IR001    18
 2 16354 IR001    40
@I  EFIR  IDEP  ITHR  IEPT  IOFF  IAME  IAMT IRNAME
 3     1    30    50   100 GS000 IR001    10 P3
@I IDATE  IROP IRVAL
 3 16276 IR001    40
 3 16284 IR001   100
 3 16288 IR001    40
 3 16300 IR001   150
 3 16312 IR001    40
 3 16327 IR001    40
 3 16335 IR001   150
 3 16347 IR001    18
 3 16354 IR001    40
@I  EFIR  IDEP  ITHR  IEPT  IOFF  IAME  IAMT IRNAME
 4     1    30    50   100 GS000 IR001    10 P4
@I IDATE  IROP IRVAL
 4 16276 IR001    40
 4 16284 IR001   100
 4 16288 IR001    40
 4 16300 IR001    40
 4 16312 IR001   150
 4 16327 IR001    40
 4 16335 IR001   150
 4 16347 IR001    18
 4 16354 IR001    40

*FERTILIZERS (INORGANIC)
@F FDATE  FMCD  FACD  FDEP  FAMN  FAMP  FAMK  FAMC  FAMO  FOCD FERNAME
 1 16276 FE005 AP004    15    50     0     0   -99   -99   -99 P1-150N
 1 16276 FE018 AP004    15     0     0   100   -99   -99   -99 P1-150N
 1 16276 FE013 AP004    15     0   100     0   -99   -99   -99 P1-150N
 1 16306 FE005 AP004    15    50     0     0   -99   -99   -99 P1-150N
 1 16326 FE005 AP004    15    50     0     0   -99   -99   -99 P1-150N
 2 16288 FE018 AP004    15     0     0   100   -99   -99   -99 P2-0N
 2 16288 FE005 AP004    15     0     0     0   -99   -99   -99 P2-0N
 2 16288 FE013 AP004    15     0   100     0   -99   -99   -99 P2-0N
 2 16318 FE005 AP004    15     0     0     0   -99   -99   -99 P2-0N
 2 16338 FE005 AP004    15     0     0     0   -99   -99   -99 P2-0N
 3 16288 FE005 AP004    15    25     0     0   -99   -99   -99 P2-75N
 3 16288 FE013 AP004    15     0   100     0   -99   -99   -99 P2-75N
 3 16288 FE018 AP004    15     0     0   100   -99   -99   -99 P2-75N
 3 16318 FE005 AP004    15    25     0     0   -99   -99   -99 P2-75N
 3 16338 FE005 AP004    15    25     0     0   -99   -99   -99 P2-75N
 4 16288 FE013 AP004    15     0   100     0   -99   -99   -99 P2-150N
 4 16288 FE018 AP004    15     0     0   100   -99   -99   -99 P2-150N
 4 16288 FE005 AP004    15    50     0     0   -99   -99   -99 P2-150N
 4 16318 FE005 AP004    15    50     0     0   -99   -99   -99 P2-150N
 4 16338 FE005 AP004    15    50     0     0   -99   -99   -99 P2-150N
 5 16288 FE013 AP004    15     0   100     0   -99   -99   -99 P2-225N
 5 16288 FE018 AP004    15     0     0   100   -99   -99   -99 P2-225N
 5 16288 FE005 AP018    15    75     0     0   -99   -99   -99 P2-225N
 5 16318 FE005 AP014    15    75     0     0   -99   -99   -99 P2-225N
 5 16338 FE005 AP014    15    75     0     0   -99   -99   -99 P2-225N
 6 16300 FE005 AP004    15    50     0     0   -99   -99   -99 P3-150N
 6 16300 FE013 AP004    15     0   100     0   -99   -99   -99 P3-150N
 6 16300 FE018 AP004    15     0     0   100   -99   -99   -99 P3-150N
 6 16330 FE005 AP004    15    50     0     0   -99   -99   -99 P3-150N
 6 16350 FE005 AP004    15    50     0     0   -99   -99   -99 P3-150N
 7 16312 FE018 AP004    15     0     0   100   -99   -99   -99 P4-150N
 7 16312 FE013 AP004    15     0   100     0   -99   -99   -99 P4-150N
 7 16312 FE005 AP004    15    50     0     0   -99   -99   -99 P4-150N
 7 16342 FE005 AP004    15    50     0     0   -99   -99   -99 P4-150N
 7 16362 FE005 AP004    15    50     0     0   -99   -99   -99 P4-150N

*RESIDUES AND ORGANIC FERTILIZER
@R RDATE  RCOD  RAMT  RESN  RESP  RESK  RINP  RDEP  RMET RENAME
 1 16284   -99   -99   -99   -99   -99   -99   -99   -99 -99

*TILLAGE AND ROTATIONS
@T TDATE TIMPL  TDEP TNAME
 1 16222 TI007    15 24 days before planting
 1 16258 TI038    12 24 days before planting
 1 16314 TI011    15 24 days before planting
 2 16262 TI007    15 14 days before planting
 2 16265 TI011    15 14 days before planting
 2 16268 TI038    12 14 days before planting

*HARVEST DETAILS
@H HDATE  HSTG  HCOM HSIZE   HPC  HBPC HNAME
 1   135 GS020     H     A   -99   -99 Elodie-P2-75N
 2   141 GS020     H     A   -99   -99 Elodie-P2-150N
 3   142 GS020     H     A   -99   -99 Elodie-P2-225N
 4   138 GS020     H     A   -99   -99 El Beida-P2-75N
 5   138 GS020     H     A   -99   -99 El Beida-P2-150N
 6   139 GS020     H     A   -99   -99 El Beida-P2-225N
 7   146 GS020     H     A   -99   -99 Constance-P2-75N
 8   149 GS020     H     A   -99   -99 Constance-P2-150N
 9   150 GS020     H     A   -99   -99 Constance-P2-225N
10   144 GS020     H     A   -99   -99 Red Sun-P2-75N
11   145 GS020     H     A   -99   -99 Red Sun-P2-150N
12   146 GS020     H     A   -99   -99 Red Sun-P2-225N
13   141 GS020     H     A   -99   -99 Red Valentine-P2-75N
14   142 GS020     H     A   -99   -99 Red Valentine-P2-150N
15   142 GS020     H     A   -99   -99 Red Valentine-P2-225N
16   147 GS020     H     A   -99   -99 Arizona-P2-75N
17   151 GS020     H     A   -99   -99 Arizona-P2-150N
18   152 GS020     H     A   -99   -99 Arizona-P2-225N
19   142 GS020     H     A   -99   -99 Arsenal-P2-75N
20   144 GS020     H     A   -99   -99 Arsenal-P2-150N
21   145 GS020     H     A   -99   -99 Arsenal-P2-225N
22   143 GS020     H     A   -99   -99 Rock-P2-75N
23   143 GS020     H     A   -99   -99 Rock-P2-150N
24   144 GS020     H     A   -99   -99 Rock-P2-225N
25   132 GS020     H     A   -99   -99 Fado-P2-75N
26   137 GS020     H     A   -99   -99 Fado-P2-150N
27   140 GS020     H     A   -99   -99 Fado-P2-225N
28   122 GS020     H     A   -99   -99 Sarpo Mira-P2-75N
29   122 GS020     H     A   -99   -99 Sarpo Mira-P2-150N
30   123 GS020     H     A   -99   -99 Sarpo Mira-P2-225N
31   106 GS020     H     A   -99   -99 Check-P2-75N
32   115 GS020     H     A   -99   -99 Check-P2-150N
33   122 GS020     H     A   -99   -99 Check-P2-225N

*SIMULATION CONTROLS
@N GENERAL     NYERS NREPS START SDATE RSEED SNAME.................... SMODEL
 2 GE              1     1     S 16262  2150 14 days before planting   PTSUB
@N OPTIONS     WATER NITRO SYMBI PHOSP POTAS DISES  CHEM  TILL   CO2
 2 OP              Y     Y     N     N     N     N     N     N     M
@N METHODS     WTHER INCON LIGHT EVAPO INFIL PHOTO HYDRO NSWIT MESOM MESEV MESOL
 2 ME              M     M     E     R     S     L     R     1     G     R     2
@N MANAGEMENT  PLANT IRRIG FERTI RESID HARVS
 2 MA              R     R     R     N     D
@N OUTPUTS     FNAME OVVEW SUMRY FROPT GROUT CAOUT WAOUT NIOUT MIOUT DIOUT VBOSE CHOUT OPOUT FMOPT
 2 OU              N     Y     Y     1     Y     Y     Y     Y     N     N     Y     N     N     A

@  AUTOMATIC MANAGEMENT
@N PLANTING    PFRST PLAST PH2OL PH2OU PH2OD PSTMX PSTMN
 2 PL          16001 16001    40   100    30    40    10
@N IRRIGATION  IMDEP ITHRL ITHRU IROFF IMETH IRAMT IREFF
 2 IR             30    50   100 GS000 IR001    10     1
@N NITROGEN    NMDEP NMTHR NAMNT NCODE NAOFF
 2 NI             30    50    25 FE001 GS000
@N RESIDUES    RIPCN RTIME RIDEP
 2 RE            100     1    20
@N HARVEST     HFRST HLAST HPCNP HPCNR
 2 HA              0 01001   100     0

@N GENERAL     NYERS NREPS START SDATE RSEED SNAME.................... SMODEL
 3 GE              1     1     S 16262  2150 14 days before planting   PTSUB
@N OPTIONS     WATER NITRO SYMBI PHOSP POTAS DISES  CHEM  TILL   CO2
 3 OP              Y     Y     N     N     N     N     N     N     M
@N METHODS     WTHER INCON LIGHT EVAPO INFIL PHOTO HYDRO NSWIT MESOM MESEV MESOL
 3 ME              M     M     E     R     S     L     R     1     G     S     2
@N MANAGEMENT  PLANT IRRIG FERTI RESID HARVS
 3 MA              R     R     R     N     D
@N OUTPUTS     FNAME OVVEW SUMRY FROPT GROUT CAOUT WAOUT NIOUT MIOUT DIOUT VBOSE CHOUT OPOUT FMOPT
 3 OU              N     Y     Y     1     Y     Y     Y     Y     N     N     Y     N     N     A

@  AUTOMATIC MANAGEMENT
@N PLANTING    PFRST PLAST PH2OL PH2OU PH2OD PSTMX PSTMN
 3 PL          16001 16001    40   100    30    40    10
@N IRRIGATION  IMDEP ITHRL ITHRU IROFF IMETH IRAMT IREFF
 3 IR             30    50   100 GS000 IR001    10     1
@N NITROGEN    NMDEP NMTHR NAMNT NCODE NAOFF
 3 NI             30    50    25 FE001 GS000
@N RESIDUES    RIPCN RTIME RIDEP
 3 RE            100     1    20
@N HARVEST     HFRST HLAST HPCNP HPCNR
 3 HA              0 01001   100     0



