*EXP.DETAILS: GUDK1707PT GENO AND PLANTING TIME (CALIBRATION, 2017-18)THIAGO

*GENERAL
@PEOPLE
Dr. Muhammad Sohail Khan and Prof. Dr. Gerrit Hoogenboom
@ADDRESS
Department of Horticulture, Gomal University, Pakistan
@SITE
Dera Ismail Khan, Pakistan
@NOTES
Maturity date is taken from the actual date of harvest
T1 = 156 DAP
T2 = 150 DAP
T3 = 140 DAP
T4 = 127 DAP
For Thiago's GLUE paper


*TREATMENTS                        -------------FACTOR LEVELS------------
@N R O C TNAME.................... CU FL SA IC MP MI MF MR MC MT ME MH SM
 6 1 1 0 Arizona-P1                 6  1  0  2  6  1  1  0  0  2  0  6  2
17 1 1 0 Arizona-P2                 6  1  0  2 17  2  2  0  0  2  0 17  2
28 1 1 0 Arizona-P3                 6  1  0  2 28  3  3  0  0  2  0 28  2
39 1 1 0 Arizona-P4                 6  1  0  2 39  4  4  0  0  2  0 39  2

*CULTIVARS
@C CR INGENO CNAME
 6 PT GU0006 Arizona

*FIELDS
@L ID_FIELD WSTA....  FLSA  FLOB  FLDT  FLDD  FLDS  FLST SLTX  SLDP  ID_SOIL    FLNAME
 1 GUDK1707 DKPK       -99   -99 DR003   -99   -99   -99 L      -99  GUPK160001 D.I.Khan
@L ...........XCRD ...........YCRD .....ELEV .............AREA .SLEN .FLWR .SLAS FLHST FHDUR
 1             -99             -99       -99               -99   -99   -99   -99 FH201     1

*SOIL ANALYSIS
@A SADAT  SMHB  SMPX  SMKE  SANAME
 1 17251   -99   -99   -99  -99
@A  SABL  SADM  SAOC  SANI SAPHW SAPHB  SAPX  SAKE  SASC
 1    15   -99   -99   -99   -99   -99   -99   -99   -99

*INITIAL CONDITIONS
@C   PCR ICDAT  ICRT  ICND  ICRN  ICRE  ICWD ICRES ICREN ICREP ICRIP ICRID ICNAME
 2    FA 17261   -99   -99     1     1   -99   -99   -99   -99   -99   -99 14 days before experiment start
@C  ICBL  SH2O  SNH4  SNO3
 2     5  .174    .1    .8
 2    15  .184    .1    .8
 2    30  .199    .1    .8
 2    60  .214    .1    .8
 2   100  .213    .1    .8
 2   200  .202    .1    .8

*PLANTING DETAILS
@P PDATE EDATE  PPOP  PPOE  PLME  PLDS  PLRS  PLRD  PLDP  PLWT  PAGE  PENV  PLPH  SPRL                        PLNAME
 6 17275 17294  4.44  4.44     S     R    75     0    12   444   -99   -99   -99     1                        Arizona-P1
17 17287 17300  4.44  4.44     S     R    75     0    12   444   -99   -99   -99     1                        Arizona-P2
28 17299 17311  4.44  4.44     S     R    75     0    12   444   -99   -99   -99     1                        Arizona-P3
39 17311 17323  4.44  4.44     S     R    75     0    12   444   -99   -99   -99     1                        Arizona-P4

*IRRIGATION AND WATER MANAGEMENT
@I  EFIR  IDEP  ITHR  IEPT  IOFF  IAME  IAMT IRNAME
 1     1    30    50   100 GS000 IR001    10 P1
@I IDATE  IROP IRVAL
 1 17275 IR001   150
 1 17283 IR001   100
 1 17287 IR001    40
 1 17299 IR001    40
 1 17311 IR001    40
 1 17326 IR001    40
 1 17334 IR001   150
 1 17346 IR001    18
 1 17353 IR001    40
@I  EFIR  IDEP  ITHR  IEPT  IOFF  IAME  IAMT IRNAME
 2     1    30    50   100 GS000 IR001    10 P2
@I IDATE  IROP IRVAL
 2 17275 IR001    40
 2 17283 IR001   100
 2 17287 IR001   150
 2 17299 IR001    40
 2 17311 IR001    40
 2 17326 IR001    40
 2 17334 IR001   150
 2 17346 IR001    18
 2 17353 IR001    40
@I  EFIR  IDEP  ITHR  IEPT  IOFF  IAME  IAMT IRNAME
 3     1    30    50   100 GS000 IR001    10 P3
@I IDATE  IROP IRVAL
 3 17275 IR001    40
 3 17283 IR001   100
 3 17287 IR001    40
 3 17299 IR001   150
 3 17311 IR001    40
 3 17326 IR001    40
 3 17334 IR001   150
 3 17346 IR001    18
 3 17353 IR001    40
@I  EFIR  IDEP  ITHR  IEPT  IOFF  IAME  IAMT IRNAME
 4     1    30    50   100 GS000 IR001    10 P4
@I IDATE  IROP IRVAL
 4 17275 IR001    40
 4 17283 IR001   100
 4 17287 IR001    40
 4 17299 IR001    40
 4 17311 IR001   150
 4 17326 IR001    40
 4 17334 IR001   150
 4 17346 IR001    18
 4 17353 IR001    40

*FERTILIZERS (INORGANIC)
@F FDATE  FMCD  FACD  FDEP  FAMN  FAMP  FAMK  FAMC  FAMO  FOCD FERNAME
 1 17275 FE013 AP004    15     0   100     0   -99   -99   -99 P1
 1 17275 FE005 AP004    15    50     0     0   -99   -99   -99 P1
 1 17275 FE018 AP004    15     0     0   100   -99   -99   -99 P1
 1 17305 FE005 AP004    15    50     0     0   -99   -99   -99 P1
 1 17325 FE005 AP004    15    50     0     0   -99   -99   -99 P1
 2 17287 FE018 AP004    15     0     0   100   -99   -99   -99 P2
 2 17287 FE013 AP004    15     0   100     0   -99   -99   -99 P2
 2 17287 FE005 AP004    15    50     0     0   -99   -99   -99 P2
 2 17317 FE005 AP004    15    50     0     0   -99   -99   -99 P2
 2 17337 FE005 AP004    15    50     0     0   -99   -99   -99 P2
 3 17299 FE013 AP004    15     0   100     0   -99   -99   -99 P3
 3 17299 FE005 AP004    15    50     0     0   -99   -99   -99 P3
 3 17299 FE018 AP004    15     0     0   100   -99   -99   -99 P3
 3 17329 FE005 AP004    15    50     0     0   -99   -99   -99 P3
 3 17349 FE005 AP004    15    50     0     0   -99   -99   -99 P3
 4 17311 FE018 AP004    15     0     0   100   -99   -99   -99 P4
 4 17311 FE013 AP004    15     0   100     0   -99   -99   -99 P4
 4 17311 FE005 AP004    15    50     0     0   -99   -99   -99 P4
 4 17341 FE005 AP004    15    50     0     0   -99   -99   -99 P4
 4 17361 FE005 AP004    15    50     0     0   -99   -99   -99 P4

*RESIDUES AND ORGANIC FERTILIZER
@R RDATE  RCOD  RAMT  RESN  RESP  RESK  RINP  RDEP  RMET RENAME
 1 16284   -99   -99   -99   -99   -99   -99   -99   -99 -99

*TILLAGE AND ROTATIONS
@T TDATE TIMPL  TDEP TNAME
 2 17261 TI007    15 14 days before planting
 2 17264 TI011    15 14 days before planting
 2 17267 TI038    12 14 days before planting

*HARVEST DETAILS
@H HDATE  HSTG  HCOM HSIZE   HPC  HBPC HNAME
 6   156 GS020     H     A   -99   -99 Arizona-P1
17   150 GS020     H     A   -99   -99 Arizona-P2
28   140 GS020     H     A   -99   -99 Arizona-P3
39   127 GS020     H     A   -99   -99 Arizona-P4

*SIMULATION CONTROLS
@N GENERAL     NYERS NREPS START SDATE RSEED SNAME.................... SMODEL
 2 GE              1     1     S 17261  2150 14 days before planting   PTSUB
@N OPTIONS     WATER NITRO SYMBI PHOSP POTAS DISES  CHEM  TILL   CO2
 2 OP              Y     Y     N     N     N     N     N     N     M
@N METHODS     WTHER INCON LIGHT EVAPO INFIL PHOTO HYDRO NSWIT MESOM MESEV MESOL
 2 ME              M     M     E     R     S     L     R     1     G     R     2
@N MANAGEMENT  PLANT IRRIG FERTI RESID HARVS
 2 MA              R     R     R     N     D
@N OUTPUTS     FNAME OVVEW SUMRY FROPT GROUT CAOUT WAOUT NIOUT MIOUT DIOUT VBOSE CHOUT OPOUT FMOPT
 2 OU              N     Y     Y     1     Y     Y     Y     Y     N     N     Y     N     N     A

@  AUTOMATIC MANAGEMENT
@N PLANTING    PFRST PLAST PH2OL PH2OU PH2OD PSTMX PSTMN
 2 PL          16001 16001    40   100    30    40    10
@N IRRIGATION  IMDEP ITHRL ITHRU IROFF IMETH IRAMT IREFF
 2 IR             30    50   100 GS000 IR001    10     1
@N NITROGEN    NMDEP NMTHR NAMNT NCODE NAOFF
 2 NI             30    50    25 FE001 GS000
@N RESIDUES    RIPCN RTIME RIDEP
 2 RE            100     1    20
@N HARVEST     HFRST HLAST HPCNP HPCNR
 2 HA              0 01001   100     0



