*EXP.DETAILS: GUDK1704PT GENO AND N (ALAM EVALUATION, 2017-18)FINAL

*GENERAL
@PEOPLE
Muhammad Sohail Khan
@ADDRESS
Department of Horticulture, Gomal University, D.I.Khan
@SITE
D.I.Khan, Pakistan
@NOTES
Maturity date is taken from the actual date of harvest
T1 = 156 DAP
T2 = 150 DAP
T3 = 140 DAP
T4 = 127 DAP
My=IS soil profile data Bhutesar
Finalized!!
Using genotype parameter values from mehwish 2017-18
Emergence dates revised so that crop maturity becomes earlier.
Harvest date revsied for each genotype


*TREATMENTS                        -------------FACTOR LEVELS------------
@N R O C TNAME.................... CU FL SA IC MP MI MF MR MC MT ME MH SM
 1 1 1 0 Elodie-0N                  1  1  0  2  1  2  2  0  0  2  0  0  2
 2 1 1 0 Elodie-75N                 1  2  0  2  2  2  3  0  0  2  0  1  2
 3 1 1 0 Elodie-150N                1  1  0  2  3  2  4  0  0  2  0  2  2
 4 1 1 0 Elodie-225N                1  1  0  2  4  2  5  0  0  2  0  3  2
 5 1 1 0 El Beida-0N                2  1  0  2  5  2  2  0  0  2  0  0  2
 6 1 1 0 El Beida-75N               2  2  0  2  6  2  3  0  0  2  0  4  2
 7 1 1 0 El Beida-150N              2  1  0  2  7  2  4  0  0  2  0  5  2
 8 1 1 0 El Beida-225N              2  1  0  2  8  2  5  0  0  2  0  6  2
 9 1 1 0 Constance-0N               3  1  0  2  9  2  2  0  0  2  0  0  2
10 1 1 0 Constance-75N              3  2  0  2 10  2  3  0  0  2  0  7  2
11 1 1 0 Constance-150N             3  1  0  2 11  2  4  0  0  2  0  8  2
12 1 1 0 Constance-225N             3  1  0  2 12  2  5  0  0  2  0  9  2
13 1 1 0 Red Sun-0N                 4  1  0  2 13  2  2  0  0  2  0  0  2
14 1 1 0 Red Sun-75N                4  2  0  2 14  2  3  0  0  2  0 10  2
15 1 1 0 Red Sun-150N               4  1  0  2 15  2  4  0  0  2  0 11  2
16 1 1 0 Red Sun-225N               4  1  0  2 16  2  5  0  0  2  0 12  2
17 1 1 0 Red Valentine-0N           5  1  0  2 17  2  2  0  0  2  0  0  2
18 1 1 0 Red Valentine-75N          5  2  0  2 18  2  3  0  0  2  0 13  2
19 1 1 0 Red Valentine-150N         5  1  0  2 19  2  4  0  0  2  0 14  2
20 1 1 0 Red Valentine-225N         5  1  0  2 20  2  5  0  0  2  0 15  2
21 1 1 0 Arizona-0N                 6  1  0  2 21  2  2  0  0  2  0  0  2
22 1 1 0 Arizona-75N                6  2  0  2 22  2  3  0  0  2  0 16  2
23 1 1 0 Arizona-150N               6  1  0  2 23  2  4  0  0  2  0 17  2
24 1 1 0 Arizona-225N               6  1  0  2 24  2  5  0  0  2  0 18  2
25 1 1 0 Arsenal-0N                 7  1  0  2 25  2  2  0  0  2  0  0  2
26 1 1 0 Arsenal-75N                7  2  0  2 26  2  3  0  0  2  0 19  2
27 1 1 0 Arsenal-150N               7  1  0  2 27  2  4  0  0  2  0 20  2
28 1 1 0 Arsenal-225N               7  1  0  2 28  2  5  0  0  2  0 21  2
29 1 1 0 Rock-0N                    8  1  0  2 29  2  2  0  0  2  0  0  2
30 1 1 0 Rock-75N                   8  2  0  2 30  2  3  0  0  2  0 22  2
31 1 1 0 Rock-150N                  8  1  0  2 31  2  4  0  0  2  0 23  2
32 1 1 0 Rock-225N                  8  1  0  2 32  2  5  0  0  2  0 24  2
33 1 1 0 Fado-0N                    9  1  0  2 33  2  2  0  0  2  0  0  2
34 1 1 0 Fado-75N                   9  2  0  2 34  2  3  0  0  2  0 25  2
35 1 1 0 Fado-150N                  9  1  0  2 35  2  4  0  0  2  0 26  2
36 1 1 0 Fado-225N                  9  1  0  2 36  2  5  0  0  2  0 27  2
37 1 1 0 Sarpo Mira-0N             10  1  0  2 37  2  2  0  0  2  0  0  2
38 1 1 0 Sarpo Mira-75N            10  2  0  2 38  2  3  0  0  2  0 28  2
39 1 1 0 Sarpo Mira-150N           10  1  0  2 39  2  4  0  0  2  0 29  2
40 1 1 0 Sarpo Mira-225N           10  1  0  2 40  2  5  0  0  2  0 30  2
41 1 1 0 Check-0N                  11  1  0  2 41  2  2  0  0  2  0  0  2
42 1 1 0 Check-75N                 11  2  0  2 42  2  3  0  0  2  0 31  2
43 1 1 0 Check-150N                11  1  0  2 43  2  4  0  0  2  0 32  2
44 1 1 0 Check-225N                11  1  0  2 44  2  5  0  0  2  0 33  2

*CULTIVARS
@C CR INGENO CNAME
 1 PT GU0001 ELodie
 2 PT GU0002 El Beida
 3 PT GU0003 Constance
 4 PT GU0004 Red Sun
 5 PT GU0005 Red Valentine
 6 PT GU0006 Arizona
 7 PT GU0007 Arsenal
 8 PT GU0008 Rock
 9 PT GU0009 Fado
10 PT GU0010 Sarpo Mira
11 PT GU0011 Check

*FIELDS
@L ID_FIELD WSTA....  FLSA  FLOB  FLDT  FLDD  FLDS  FLST SLTX  SLDP  ID_SOIL    FLNAME
 1 GUDK1701 GUDD       -99   -99 DR003   -99   -99   -99 L      -99  GUPK160001 D.I.Khan
 2 XXXXXXX2 GUDD       -99   -99 DR003   -99   -99   -99 L      -99  GUFA160001 Zindani
@L ...........XCRD ...........YCRD .....ELEV .............AREA .SLEN .FLWR .SLAS FLHST FHDUR
 1             -99             -99       -99               -99   -99   -99   -99 FH201     1
 2             -99             -99       -99               -99   -99   -99   -99 FH201     1

*SOIL ANALYSIS
@A SADAT  SMHB  SMPX  SMKE  SANAME
 1 17251   -99   -99   -99  -99
@A  SABL  SADM  SAOC  SANI SAPHW SAPHB  SAPX  SAKE  SASC
 1    15   -99   -99   -99   -99   -99   -99   -99   -99

*INITIAL CONDITIONS
@C   PCR ICDAT  ICRT  ICND  ICRN  ICRE  ICWD ICRES ICREN ICREP ICRIP ICRID ICNAME
 1    FA 17251   -99   -99     1     1   -99   -99   -99   -99   -99   -99 24 days before experiment start
@C  ICBL  SH2O  SNH4  SNO3
 1     5  .174    .1    .8
 1    15  .184    .1    .8
 1    30  .199    .1    .8
 1    60  .214    .1    .8
 1   100  .213    .1    .8
 1   200  .202    .1    .8
@C   PCR ICDAT  ICRT  ICND  ICRN  ICRE  ICWD ICRES ICREN ICREP ICRIP ICRID ICNAME
 2    FA 17261   -99   -99     1     1   -99   -99   -99   -99   -99   -99 14 days before experiment start
@C  ICBL  SH2O  SNH4  SNO3
 2     5  .174    .1    .8
 2    15  .184    .1    .8
 2    30  .199    .1    .8
 2    60  .214    .1    .8
 2   100  .213    .1    .8
 2   200  .202    .1    .8

*PLANTING DETAILS
@P PDATE EDATE  PPOP  PPOE  PLME  PLDS  PLRS  PLRD  PLDP  PLWT  PAGE  PENV  PLPH  SPRL                        PLNAME
 1 17287 17298  4.44  4.44     S     R    75     0    12   444   -99   -99   -99    .5                        Elodie-P2-0N
 2 17287 17299  4.44  4.44     S     R    75     0    12   444   -99   -99   -99     1                        Elodie-P2-75N
 3 17287 17299  4.44  4.44     S     R    75     0    12   444   -99   -99   -99     1                        Elodie-P2-150N
 4 17287 17301  4.44  4.44     S     R    75     0    12   444   -99   -99   -99    .5                        Elodie-P2-225N
 5 17287 17298  4.44  4.44     S     R    75     0    12   444   -99   -99   -99    .5                        Elbeida-P2-0N
 6 17287 17299  4.44  4.44     S     R    75     0    12   444   -99   -99   -99     1                        Elbeida-P2-75N
 7 17287 17299  4.44  4.44     S     R    75     0    12   444   -99   -99   -99     1                        Elbeida-P2-150N
 8 17287 17302  4.44  4.44     S     R    75     0    12   444   -99   -99   -99    .5                        Elbeida-P2-225N
 9 17287 17312  4.44  4.44     S     R    75     0    12   444   -99   -99   -99    .5                        Constance-P2-0N
10 17287 17313  4.44  4.44     S     R    75     0    12   444   -99   -99   -99     1                        Constance-P2-75N
11 17287 17314  4.44  4.44     S     R    75     0    12   444   -99   -99   -99     1                        Constance-P2-150N
12 17287 17314  4.44  4.44     S     R    75     0    12   444   -99   -99   -99    .5                        Constance-P2-225N
13 17287 17300  4.44  4.44     S     R    75     0    12   444   -99   -99   -99    .5                        Red Sun-P2-0N
14 17287 17301  4.44  4.44     S     R    75     0    12   444   -99   -99   -99     1                        Red Sun-P2-75N
15 17287 17301  4.44  4.44     S     R    75     0    12   444   -99   -99   -99     1                        Red Sun-P2-150N
16 17287 17304  4.44  4.44     S     R    75     0    12   444   -99   -99   -99    .5                        Red Sun-P2-225N
17 17288 17300  4.44  4.44     S     R    75     0    12   444   -99   -99   -99    .5                        Red Valentine-P2-0N
18 17288 17301  4.44  4.44     S     R    75     0    12   444   -99   -99   -99     1                        Red Valentine-P2-75N
19 17287 17302  4.44  4.44     S     R    75     0    12   444   -99   -99   -99     1                        Red Valentine-P2-150N
20 17287 17304  4.44  4.44     S     R    75     0    12   444   -99   -99   -99    .5                        Red Valentine-P2-225N
21 17287 17299  4.44  4.44     S     R    75     0    12   444   -99   -99   -99    .5                        Arizona-P2-0N
22 17287 17300  4.44  4.44     S     R    75     0    12   444   -99   -99   -99     1                        Arizona-P2-75N
23 17287 17300  4.44  4.44     S     R    75     0    12   444   -99   -99   -99     1                        Arizona-P2-150N
24 17287 17303  4.44  4.44     S     R    75     0    12   444   -99   -99   -99    .5                        Arizona-P2-225N
25 17287 17301  4.44  4.44     S     R    75     0    12   444   -99   -99   -99    .5                        Arsenal-P2-0N
26 17287 17302  4.44  4.44     S     R    75     0    12   444   -99   -99   -99     1                        Arsenal-P2-75N
27 17287 17305  4.44  4.44     S     R    75     0    12   444   -99   -99   -99     1                        Arsenal-P2-150N
28 17287 17305  4.44  4.44     S     R    75     0    12   444   -99   -99   -99    .5                        Arsenal-P2-225N
29 17287 17302  4.44  4.44     S     R    75     0    12   444   -99   -99   -99    .5                        Rock-P2-0N
30 17287 17303  4.44  4.44     S     R    75     0    12   444   -99   -99   -99     1                        Rock-P2-75N
31 17287 17303  4.44  4.44     S     R    75     0    12   444   -99   -99   -99     1                        Rock-P2-150N
32 17287 17304  4.44  4.44     S     R    75     0    12   444   -99   -99   -99    .5                        Rock-P2-225N
33 17287 17304  4.44  4.44     S     R    75     0    12   444   -99   -99   -99    .5                        Fado-P2-0N
34 17287 17304  4.44  4.44     S     R    75     0    12   444   -99   -99   -99     1                        Fado-P2-75N
35 17287 17306  4.44  4.44     S     R    75     0    12   444   -99   -99   -99     1                        Fado-P2-150N
36 17287 17307  4.44  4.44     S     R    75     0    12   444   -99   -99   -99    .5                        Fado-P2-225N
37 17287 17304  4.44  4.44     S     R    75     0    12   444   -99   -99   -99    .5                        Sarpo Mira-P2-0N
38 17287 17304  4.44  4.44     S     R    75     0    12   444   -99   -99   -99     1                        Sarpo Mira-P2-75N
39 17287 17306  4.44  4.44     S     R    75     0    12   444   -99   -99   -99     1                        Sarpo Mira-P2-150N
40 17287 17307  4.44  4.44     S     R    75     0    12   444   -99   -99   -99    .5                        Sarpo Mira-P2-225N
41 17287 17308  4.44  4.44     S     R    75     0    12   444   -99   -99   -99    .5                        Check-P2-0N
42 17287 17309  4.44  4.44     S     R    75     0    12   444   -99   -99   -99     1                        Check-P2-75N
43 17287 17309  4.44  4.44     S     R    75     0    12   444   -99   -99   -99     1                        Check-P2-150N
44 17287 17310  4.44  4.44     S     R    75     0    12   444   -99   -99   -99    .5                        Check-P2-225N

*IRRIGATION AND WATER MANAGEMENT
@I  EFIR  IDEP  ITHR  IEPT  IOFF  IAME  IAMT IRNAME
 1     1    30    50   100 GS000 IR001    10 P1
@I IDATE  IROP IRVAL
 1 17275 IR001   150
 1 17283 IR001   100
 1 17287 IR001    40
 1 17299 IR001    40
 1 17311 IR001    40
 1 17326 IR001    40
 1 17334 IR001   150
 1 17346 IR001    18
 1 17353 IR001    40
@I  EFIR  IDEP  ITHR  IEPT  IOFF  IAME  IAMT IRNAME
 2     1    30    50   100 GS000 IR001    10 P2
@I IDATE  IROP IRVAL
 2 17275 IR001    40
 2 17283 IR001   100
 2 17287 IR001   150
 2 17299 IR001    40
 2 17311 IR001    40
 2 17326 IR001    40
 2 17334 IR001   150
 2 17346 IR001    18
 2 17353 IR001    40
@I  EFIR  IDEP  ITHR  IEPT  IOFF  IAME  IAMT IRNAME
 3     1    30    50   100 GS000 IR001    10 P3
@I IDATE  IROP IRVAL
 3 17275 IR001    40
 3 17283 IR001   100
 3 17287 IR001    40
 3 17299 IR001   150
 3 17311 IR001    40
 3 17326 IR001    40
 3 17334 IR001   150
 3 17346 IR001    18
 3 17353 IR001    40
@I  EFIR  IDEP  ITHR  IEPT  IOFF  IAME  IAMT IRNAME
 4     1    30    50   100 GS000 IR001    10 P4
@I IDATE  IROP IRVAL
 4 17275 IR001    40
 4 17283 IR001   100
 4 17287 IR001    40
 4 17299 IR001    40
 4 17311 IR001   150
 4 17326 IR001    40
 4 17334 IR001   150
 4 17346 IR001    18
 4 17353 IR001    40

*FERTILIZERS (INORGANIC)
@F FDATE  FMCD  FACD  FDEP  FAMN  FAMP  FAMK  FAMC  FAMO  FOCD FERNAME
 1 17275 FE005 AP004    15    50     0     0   -99   -99   -99 P1-150N
 1 17275 FE018 AP004    15     0     0   100   -99   -99   -99 P1-150N
 1 17275 FE013 AP004    15     0   100     0   -99   -99   -99 P1-150N
 1 17305 FE005 AP004    15    50     0     0   -99   -99   -99 P1-150N
 1 17325 FE005 AP004    15    50     0     0   -99   -99   -99 P1-150N
 2 17287 FE018 AP004    15     0     0   100   -99   -99   -99 P2-0N
 2 17287 FE005 AP004    15     0     0     0   -99   -99   -99 P2-0N
 2 17287 FE013 AP004    15     0   100     0   -99   -99   -99 P2-0N
 2 17317 FE005 AP004    15     0     0     0   -99   -99   -99 P2-0N
 2 17337 FE005 AP004    15     0     0     0   -99   -99   -99 P2-0N
 3 17287 FE005 AP004    15    25     0     0   -99   -99   -99 P2-75N
 3 17287 FE013 AP004    15     0   100     0   -99   -99   -99 P2-75N
 3 17287 FE018 AP004    15     0     0   100   -99   -99   -99 P2-75N
 3 17317 FE005 AP004    15    25     0     0   -99   -99   -99 P2-75N
 3 17337 FE005 AP004    15    25     0     0   -99   -99   -99 P2-75N
 4 17287 FE013 AP004    15     0   100     0   -99   -99   -99 P2-150N
 4 17287 FE018 AP004    15     0     0   100   -99   -99   -99 P2-150N
 4 17287 FE005 AP004    15    50     0     0   -99   -99   -99 P2-150N
 4 17317 FE005 AP004    15    50     0     0   -99   -99   -99 P2-150N
 4 17337 FE005 AP004    15    50     0     0   -99   -99   -99 P2-150N
 5 17287 FE013 AP004    15     0   100     0   -99   -99   -99 P2-225N
 5 17287 FE018 AP004    15     0     0   100   -99   -99   -99 P2-225N
 5 17287 FE005 AP018    15    75     0     0   -99   -99   -99 P2-225N
 5 17317 FE005 AP014    15    75     0     0   -99   -99   -99 P2-225N
 5 17337 FE005 AP014    15    75     0     0   -99   -99   -99 P2-225N
 6 17299 FE005 AP004    15    50     0     0   -99   -99   -99 P3-150N
 6 17299 FE013 AP004    15     0   100     0   -99   -99   -99 P3-150N
 6 17299 FE018 AP004    15     0     0   100   -99   -99   -99 P3-150N
 6 17329 FE005 AP004    15    50     0     0   -99   -99   -99 P3-150N
 6 17349 FE005 AP004    15    50     0     0   -99   -99   -99 P3-150N
 7 17311 FE018 AP004    15     0     0   100   -99   -99   -99 P4-150N
 7 17311 FE013 AP004    15     0   100     0   -99   -99   -99 P4-150N
 7 17311 FE005 AP004    15    50     0     0   -99   -99   -99 P4-150N
 7 17341 FE005 AP004    15    50     0     0   -99   -99   -99 P4-150N
 7 17361 FE005 AP004    15    50     0     0   -99   -99   -99 P4-150N

*RESIDUES AND ORGANIC FERTILIZER
@R RDATE  RCOD  RAMT  RESN  RESP  RESK  RINP  RDEP  RMET RENAME
 1 16284   -99   -99   -99   -99   -99   -99   -99   -99 -99

*TILLAGE AND ROTATIONS
@T TDATE TIMPL  TDEP TNAME
 1 17221 TI007    15 24 days before planting
 1 17257 TI038    12 24 days before planting
 1 17313 TI011    15 24 days before planting
 2 17261 TI007    15 14 days before planting
 2 17264 TI011    15 14 days before planting
 2 17267 TI038    12 14 days before planting

*HARVEST DETAILS
@H HDATE  HSTG  HCOM HSIZE   HPC  HBPC HNAME
 1   132 GS020     H     A   -99   -99 Elodie-P2-75N
 2   138 GS020     H     A   -99   -99 Elodie-P2-150N
 3   139 GS020     H     A   -99   -99 Elodie-P2-225N
 4   135 GS020     H     A   -99   -99 El Beida-P2-75N
 5   135 GS020     H     A   -99   -99 El Beida-P2-150N
 6   136 GS020     H     A   -99   -99 El Beida-P2-225N
 7   143 GS020     H     A   -99   -99 Constance-P2-75N
 8   146 GS020     H     A   -99   -99 Constance-P2-150N
 9   147 GS020     H     A   -99   -99 Constance-P2-225N
10   141 GS020     H     A   -99   -99 Red Sun-P2-75N
11   142 GS020     H     A   -99   -99 Red Sun-P2-150N
12   143 GS020     H     A   -99   -99 Red Sun-P2-225N
13   138 GS020     H     A   -99   -99 Red Valentine-P2-75N
14   139 GS020     H     A   -99   -99 Red Valentine-P2-150N
15   139 GS020     H     A   -99   -99 Red Valentine-P2-225N
16   144 GS020     H     A   -99   -99 Arizona-P2-75N
17   148 GS020     H     A   -99   -99 Arizona-P2-150N
18   149 GS020     H     A   -99   -99 Arizona-P2-225N
19   139 GS020     H     A   -99   -99 Arsenal-P2-75N
20   141 GS020     H     A   -99   -99 Arsenal-P2-150N
21   142 GS020     H     A   -99   -99 Arsenal-P2-225N
22   140 GS020     H     A   -99   -99 Rock-P2-75N
23   140 GS020     H     A   -99   -99 Rock-P2-150N
24   141 GS020     H     A   -99   -99 Rock-P2-225N
25   129 GS020     H     A   -99   -99 Fado-P2-75N
26   134 GS020     H     A   -99   -99 Fado-P2-150N
27   137 GS020     H     A   -99   -99 Fado-P2-225N
28   120 GS020     H     A   -99   -99 Sarpo Mira-P2-75N
29   120 GS020     H     A   -99   -99 Sarpo Mira-P2-150N
30   121 GS020     H     A   -99   -99 Sarpo Mira-P2-225N
31   104 GS020     H     A   -99   -99 Check-P2-75N
32   113 GS020     H     A   -99   -99 Check-P2-150N
33   120 GS020     H     A   -99   -99 Check-P2-225N

*SIMULATION CONTROLS
@N GENERAL     NYERS NREPS START SDATE RSEED SNAME.................... SMODEL
 2 GE              1     1     S 17261  2150 14 days before planting   PTSUB
@N OPTIONS     WATER NITRO SYMBI PHOSP POTAS DISES  CHEM  TILL   CO2
 2 OP              Y     Y     N     N     N     N     N     N     M
@N METHODS     WTHER INCON LIGHT EVAPO INFIL PHOTO HYDRO NSWIT MESOM MESEV MESOL
 2 ME              M     M     E     R     S     L     R     1     G     R     2
@N MANAGEMENT  PLANT IRRIG FERTI RESID HARVS
 2 MA              R     R     R     N     D
@N OUTPUTS     FNAME OVVEW SUMRY FROPT GROUT CAOUT WAOUT NIOUT MIOUT DIOUT VBOSE CHOUT OPOUT FMOPT
 2 OU              N     Y     Y     1     Y     Y     Y     Y     N     N     Y     N     N     A

@  AUTOMATIC MANAGEMENT
@N PLANTING    PFRST PLAST PH2OL PH2OU PH2OD PSTMX PSTMN
 2 PL          17001 17001    40   100    30    40    10
@N IRRIGATION  IMDEP ITHRL ITHRU IROFF IMETH IRAMT IREFF
 2 IR             30    50   100 GS000 IR001    10     1
@N NITROGEN    NMDEP NMTHR NAMNT NCODE NAOFF
 2 NI             30    50    25 FE001 GS000
@N RESIDUES    RIPCN RTIME RIDEP
 2 RE            100     1    20
@N HARVEST     HFRST HLAST HPCNP HPCNR
 2 HA              0 01001   100     0



